*
*
*
*                       LINUX           Thu Feb 27 17:22:08 2025
*
*
*
*  PROGRAM  advgen
*
*  Name           : advgen - Quantus - (64-bit)
*  Version        : 19.1.0-p139
*  Build Date     : Tue Jan 15 01:22:17 PST 2019
*
*  HSPICE LIBRARY
*
*!LENGTH_UNITS METERS
*
*
*

*
.SUBCKT Bool_Lab2 VDD! VSS! CLK reset B
*
*
*  caps2d version: 10
*
*
*       TRANSISTOR CARDS
*
*
MI4/avD2_1	VSS!	I4/avC1	avC7	VSS!
+ nmos1v#20ivpcell#20gpdk045	L=4.5e-08	W=2.6e-07
+ AD=4.365e-14	AS=4.365e-14	PD=8.5e-07	PS=8.5e-07
+ scc=2.023011e-18 scb=1.682307e-09 sca=4.844741e-01 sb=2.35383e-07 sa=1.4e-07
MI4/avD2_2	I4/avC2	CLK	VSS!	VSS!
+ nmos1v#20ivpcell#20gpdk045	L=4.5e-08	W=1.45e-07
+ AD=3.2625e-14	AS=3.2625e-14	PD=8.2e-07	PS=8.2e-07
+ scc=3.435040e-18 scb=2.460251e-09 sca=4.904911e-01 sb=2.25e-07 sa=3.75e-07
MI4/avD2_3	VSS!	I4/avC3	I4/avC1	VSS!
+ nmos1v#20ivpcell#20gpdk045	L=4.5e-08	W=1.45e-07
+ AD=3.045e-14	AS=3.045e-14	PD=6.4e-07	PS=6.4e-07
+ scc=7.494331e-18 scb=3.606653e-09 sca=5.110165e-01 sb=2.335e-06 sa=1.4e-07
MI4/avD2_4	I4/avC15	I4/avC1	VSS!	VSS!
+ nmos1v#20ivpcell#20gpdk045	L=4.5e-08	W=1.45e-07
+ AD=2.03e-14	AS=2.03e-14	PD=6.4e-07	PS=6.4e-07
+ scc=7.498812e-18 scb=3.700678e-09 sca=5.320552e-01 sb=2.08e-06 sa=3.95e-07
MI4/avD2_5	I4/avC3	I4/avC2	I4/avC15	VSS!
+ nmos1v#20ivpcell#20gpdk045	L=4.5e-08	W=1.45e-07
+ AD=3.6975e-14	AS=3.6975e-14	PD=6.85e-07	PS=6.85e-07
+ scc=7.662625e-18 scb=4.201572e-09 sca=5.559920e-01 sb=1.895e-06 sa=5.8e-07
MI4/avD2_6	I4/avC5	I4/avC4	I4/avC3	VSS!
+ nmos1v#20ivpcell#20gpdk045	L=4.5e-08	W=1.45e-07
+ AD=3.045e-14	AS=3.045e-14	PD=7.55e-07	PS=7.55e-07
+ scc=6.613761e-17 scb=1.407257e-08 sca=6.170051e-01 sb=1.595e-06 sa=8.8e-07
MI4/avD2_7	VSS!	I4/avC6	I4/avC5	VSS!
+ nmos1v#20ivpcell#20gpdk045	L=4.5e-08	W=1.45e-07
+ AD=8.7575e-14	AS=8.7575e-14	PD=1.16e-06	PS=1.16e-06
+ scc=8.334775e-15 scb=1.197529e-07 sca=7.028202e-01 sb=1.34e-06 sa=1.135e-06
MI4/avD2_8	I4/avC16	I4/avC5	VSS!	VSS!
+ nmos1v#20ivpcell#20gpdk045	L=4.5e-08	W=1.45e-07
+ AD=2.465e-14	AS=2.465e-14	PD=1.12e-06	PS=1.12e-06
+ scc=1.279382e-11 scb=3.997036e-06 sca=9.493010e-01 sb=9.6e-07 sa=1.515e-06
MI4/avD2_9	I4/avC6	I4/avC4	I4/avC16	VSS!
+ nmos1v#20ivpcell#20gpdk045	L=4.5e-08	W=1.45e-07
+ AD=3.045e-14	AS=3.045e-14	PD=6.7e-07	PS=6.7e-07
+ scc=7.825402e-10 scb=2.846369e-05 sca=1.226437e+00 sb=7.45e-07 sa=1.73e-06
MI4/avD2_10	I4/avC17	I4/avC2	I4/avC6	VSS!
+ nmos1v#20ivpcell#20gpdk045	L=4.5e-08	W=1.45e-07
+ AD=8.7e-15	AS=8.7e-15	PD=5.6e-07	PS=5.6e-07
+ scc=9.715744e-08 scb=2.760446e-04 sca=1.896863e+00 sb=4.9e-07 sa=1.985e-06
MI4/avD2_11	VSS!	avC8	I4/avC17	VSS!
+ nmos1v#20ivpcell#20gpdk045	L=4.5e-08	W=1.45e-07
+ AD=2.9e-14	AS=2.9e-14	PD=5.5e-07	PS=5.5e-07
+ scc=6.885054e-07 scb=6.847546e-04 sca=2.410764e+00 sb=3.85e-07 sa=2.09e-06
MI4/avD2_12	I4/avC4	I4/avC2	VSS!	VSS!
+ nmos1v#20ivpcell#20gpdk045	L=4.5e-08	W=1.45e-07
+ AD=2.03e-14	AS=2.03e-14	PD=6.3e-07	PS=6.3e-07
+ scc=5.958996e-05 scb=5.120925e-03 sca=5.329557e+00 sb=1.4e-07 sa=2.335e-06
MI5/avD2_1	VSS!	I5/avC1	avC6	VSS!
+ nmos1v#20ivpcell#20gpdk045	L=4.5e-08	W=2.6e-07
+ AD=4.365e-14	AS=4.365e-14	PD=8.5e-07	PS=8.5e-07
+ scc=1.949850e-24 scb=2.324277e-12 sca=3.261228e-01 sb=2.35383e-07 sa=1.4e-07
MI5/avD2_2	I5/avC2	CLK	VSS!	VSS!
+ nmos1v#20ivpcell#20gpdk045	L=4.5e-08	W=1.45e-07
+ AD=3.2625e-14	AS=3.2625e-14	PD=8.2e-07	PS=8.2e-07
+ scc=2.575243e-26 scb=3.792579e-13 sca=3.211375e-01 sb=2.25e-07 sa=3.75e-07
MI5/avD2_3	VSS!	I5/avC3	I5/avC1	VSS!
+ nmos1v#20ivpcell#20gpdk045	L=4.5e-08	W=1.45e-07
+ AD=3.045e-14	AS=3.045e-14	PD=6.4e-07	PS=6.4e-07
+ scc=9.879380e-23 scb=1.584227e-11 sca=3.366030e-01 sb=2.335e-06 sa=1.4e-07
MI5/avD2_4	I5/avC15	I5/avC1	VSS!	VSS!
+ nmos1v#20ivpcell#20gpdk045	L=4.5e-08	W=1.45e-07
+ AD=2.03e-14	AS=2.03e-14	PD=6.4e-07	PS=6.4e-07
+ scc=1.460224e-20 scb=1.828228e-10 sca=3.606181e-01 sb=2.08e-06 sa=3.95e-07
MI5/avD2_5	I5/avC3	I5/avC2	I5/avC15	VSS!
+ nmos1v#20ivpcell#20gpdk045	L=4.5e-08	W=1.45e-07
+ AD=3.6975e-14	AS=3.6975e-14	PD=6.85e-07	PS=6.85e-07
+ scc=5.436088e-19 scb=1.070234e-09 sca=3.874137e-01 sb=1.895e-06 sa=5.8e-07
MI5/avD2_6	I5/avC5	I5/avC4	I5/avC3	VSS!
+ nmos1v#20ivpcell#20gpdk045	L=4.5e-08	W=1.45e-07
+ AD=3.045e-14	AS=3.045e-14	PD=7.55e-07	PS=7.55e-07
+ scc=1.885515e-16 scb=1.848389e-08 sca=4.554053e-01 sb=1.595e-06 sa=8.8e-07
MI5/avD2_7	VSS!	I5/avC6	I5/avC5	VSS!
+ nmos1v#20ivpcell#20gpdk045	L=4.5e-08	W=1.45e-07
+ AD=8.7575e-14	AS=8.7575e-14	PD=1.16e-06	PS=1.16e-06
+ scc=2.663862e-14 scb=2.039326e-07 sca=5.515733e-01 sb=1.34e-06 sa=1.135e-06
MI5/avD2_8	I5/avC16	I5/avC5	VSS!	VSS!
+ nmos1v#20ivpcell#20gpdk045	L=4.5e-08	W=1.45e-07
+ AD=2.465e-14	AS=2.465e-14	PD=1.12e-06	PS=1.12e-06
+ scc=4.046092e-11 scb=6.931610e-06 sca=8.333958e-01 sb=9.6e-07 sa=1.515e-06
MI5/avD2_9	I5/avC6	I5/avC4	I5/avC16	VSS!
+ nmos1v#20ivpcell#20gpdk045	L=4.5e-08	W=1.45e-07
+ AD=3.045e-14	AS=3.045e-14	PD=6.7e-07	PS=6.7e-07
+ scc=2.449543e-09 scb=4.889669e-05 sca=1.160699e+00 sb=7.45e-07 sa=1.73e-06
MI5/avD2_10	I5/avC17	I5/avC2	I5/avC6	VSS!
+ nmos1v#20ivpcell#20gpdk045	L=4.5e-08	W=1.45e-07
+ AD=8.7e-15	AS=8.7e-15	PD=5.6e-07	PS=5.6e-07
+ scc=2.982034e-07 scb=4.650578e-04 sca=1.985272e+00 sb=4.9e-07 sa=1.985e-06
MI5/avD2_11	VSS!	avC7	I5/avC17	VSS!
+ nmos1v#20ivpcell#20gpdk045	L=4.5e-08	W=1.45e-07
+ AD=2.9e-14	AS=2.9e-14	PD=5.5e-07	PS=5.5e-07
+ scc=2.086903e-06 scb=1.139331e-03 sca=2.647823e+00 sb=3.85e-07 sa=2.09e-06
MI5/avD2_12	I5/avC4	I5/avC2	VSS!	VSS!
+ nmos1v#20ivpcell#20gpdk045	L=4.5e-08	W=1.45e-07
+ AD=2.03e-14	AS=2.03e-14	PD=6.3e-07	PS=6.3e-07
+ scc=1.711199e-04 scb=8.075134e-03 sca=6.827265e+00 sb=1.4e-07 sa=2.335e-06
MI6/avD2_1	VSS!	I6/avC1	B	VSS!
+ nmos1v#20ivpcell#20gpdk045	L=4.5e-08	W=2.6e-07
+ AD=4.365e-14	AS=4.365e-14	PD=8.5e-07	PS=8.5e-07
+ scc=3.631909e-18 scb=2.234479e-09 sca=4.878823e-01 sb=2.35383e-07 sa=1.4e-07
MI6/avD2_2	I6/avC2	CLK	VSS!	VSS!
+ nmos1v#20ivpcell#20gpdk045	L=4.5e-08	W=1.45e-07
+ AD=3.2625e-14	AS=3.2625e-14	PD=8.2e-07	PS=8.2e-07
+ scc=6.537808e-19 scb=1.095387e-09 sca=4.716825e-01 sb=2.25e-07 sa=3.75e-07
MI6/avD2_3	VSS!	I6/avC3	I6/avC1	VSS!
+ nmos1v#20ivpcell#20gpdk045	L=4.5e-08	W=1.45e-07
+ AD=3.045e-14	AS=3.045e-14	PD=6.4e-07	PS=6.4e-07
+ scc=2.994469e-19 scb=7.660919e-10 sca=4.803879e-01 sb=2.335e-06 sa=1.4e-07
MI6/avD2_4	I6/avC15	I6/avC1	VSS!	VSS!
+ nmos1v#20ivpcell#20gpdk045	L=4.5e-08	W=1.45e-07
+ AD=2.03e-14	AS=2.03e-14	PD=6.4e-07	PS=6.4e-07
+ scc=3.188981e-19 scb=9.588332e-10 sca=5.051796e-01 sb=2.08e-06 sa=3.95e-07
MI6/avD2_5	I6/avC3	I6/avC2	I6/avC15	VSS!
+ nmos1v#20ivpcell#20gpdk045	L=4.5e-08	W=1.45e-07
+ AD=3.6975e-14	AS=3.6975e-14	PD=6.85e-07	PS=6.85e-07
+ scc=1.027964e-18 scb=1.982515e-09 sca=5.327306e-01 sb=1.895e-06 sa=5.8e-07
MI6/avD2_6	I6/avC5	I6/avC4	I6/avC3	VSS!
+ nmos1v#20ivpcell#20gpdk045	L=4.5e-08	W=1.45e-07
+ AD=3.045e-14	AS=3.045e-14	PD=7.55e-07	PS=7.55e-07
+ scc=2.527414e-16 scb=2.204801e-08 sca=6.025912e-01 sb=1.595e-06 sa=8.8e-07
MI6/avD2_7	VSS!	I6/avC6	I6/avC5	VSS!
+ nmos1v#20ivpcell#20gpdk045	L=4.5e-08	W=1.45e-07
+ AD=8.7575e-14	AS=8.7575e-14	PD=1.16e-06	PS=1.16e-06
+ scc=3.561819e-14 scb=2.354425e-07 sca=7.015740e-01 sb=1.34e-06 sa=1.135e-06
MI6/avD2_8	I6/avC16	I6/avC5	VSS!	VSS!
+ nmos1v#20ivpcell#20gpdk045	L=4.5e-08	W=1.45e-07
+ AD=2.465e-14	AS=2.465e-14	PD=1.12e-06	PS=1.12e-06
+ scc=5.393618e-11 scb=7.953949e-06 sca=9.932323e-01 sb=9.6e-07 sa=1.515e-06
MI6/avD2_9	I6/avC6	I6/avC4	I6/avC16	VSS!
+ nmos1v#20ivpcell#20gpdk045	L=4.5e-08	W=1.45e-07
+ AD=3.045e-14	AS=3.045e-14	PD=6.7e-07	PS=6.7e-07
+ scc=3.256396e-09 scb=5.595055e-05 sca=1.334846e+00 sb=7.45e-07 sa=1.73e-06
MI6/avD2_10	I6/avC17	I6/avC2	I6/avC6	VSS!
+ nmos1v#20ivpcell#20gpdk045	L=4.5e-08	W=1.45e-07
+ AD=8.69999e-15	AS=8.69999e-15	PD=5.6e-07	PS=5.6e-07
+ scc=3.943083e-07 scb=5.293061e-04 sca=2.205271e+00 sb=4.9e-07 sa=1.985e-06
MI6/avD2_11	VSS!	avC6	I6/avC17	VSS!
+ nmos1v#20ivpcell#20gpdk045	L=4.5e-08	W=1.45e-07
+ AD=2.9e-14	AS=2.9e-14	PD=5.5e-07	PS=5.5e-07
+ scc=2.749864e-06 scb=1.292238e-03 sca=2.913776e+00 sb=3.85e-07 sa=2.09e-06
MI6/avD2_12	I6/avC4	I6/avC2	VSS!	VSS!
+ nmos1v#20ivpcell#20gpdk045	L=4.5e-08	W=1.45e-07
+ AD=2.03e-14	AS=2.03e-14	PD=6.3e-07	PS=6.3e-07
+ scc=2.219688e-04 scb=9.017212e-03 sca=7.520998e+00 sb=1.4e-07 sa=2.335e-06
MI3/avD2_1	VSS!	reset	avC8	VSS!	nmos1v#20ivpcell#20gpdk045
+ L=4.5e-08	W=1.42e-06
+ AD=1.988e-13	AS=1.988e-13	PD=3.12e-06	PS=3.12e-06
+ scc=1.79453e-10 scb=5.57295e-06 sca=0.935597 sb=1.4e-07 sa=1.4e-07
MI3/avD2_2	avC8	B	I3/avC2	VSS!
+ nmos1v#20ivpcell#20gpdk045	L=4.5e-08	W=2.84e-06
+ AD=3.976e-13	AS=3.976e-13	PD=5.96e-06	PS=5.96e-06
+ scc=4.17543e-08 scb=8.45211e-05 sca=1.47953 sb=1.4e-07 sa=1.4e-07
MI3/avD2_3	I3/avC2	avC6	VSS!	VSS!
+ nmos1v#20ivpcell#20gpdk045	L=4.5e-08	W=2.84e-06
+ AD=3.976e-13	AS=3.976e-13	PD=5.96e-06	PS=5.96e-06
+ scc=2.23288e-05 scb=0.00336422 sca=4.48659 sb=1.4e-07 sa=1.4e-07
MI4/avD10_1	VDD!	I4/avC6	I4/avC5	VDD!
+ pmos1v#20ivpcell#20gpdk045	L=4.5e-08	W=2.15e-07
+ AD=7.55e-14	AS=7.55e-14	PD=1.19e-06	PS=1.19e-06
+ scc=8.81351e-05 scb=0.0075345 sca=9.05993 sb=1.37e-06 sa=1.145e-06
MI4/avD10_2	I4/avC13	I4/avC5	VDD!	VDD!
+ pmos1v#20ivpcell#20gpdk045	L=4.5e-08	W=2.15e-07
+ AD=1.29e-14	AS=1.29e-14	PD=9.45e-07	PS=9.45e-07
+ scc=8.81351e-05 scb=0.00753977 sca=9.2218 sb=1.105e-06 sa=1.41e-06
MI4/avD10_3	I4/avC6	I4/avC2	I4/avC13	VDD!
+ pmos1v#20ivpcell#20gpdk045	L=4.5e-08	W=2.15e-07
+ AD=3.87e-14	AS=3.87e-14	PD=6.7e-07	PS=6.7e-07
+ scc=8.81353e-05 scb=0.00754907 sca=9.33557 sb=1e-06 sa=1.515e-06
MI4/avD10_4	I4/avC14	I4/avC4	I4/avC6	VDD!
+ pmos1v#20ivpcell#20gpdk045	L=4.5e-08	W=2.15e-07
+ AD=5.9125e-14	AS=5.9125e-14	PD=8.85e-07	PS=8.85e-07
+ scc=8.81499e-05 scb=0.00764831 sca=9.75526 sb=7.75e-07 sa=1.74e-06
MI4/avD10_5	VDD!	avC8	I4/avC14	VDD!
+ pmos1v#20ivpcell#20gpdk045	L=4.5e-08	W=2.15e-07
+ AD=3.44e-14	AS=3.44e-14	PD=8.65e-07	PS=8.65e-07
+ scc=9.38564e-05 scb=0.00933657 sca=11.4861 sb=4.55e-07 sa=2.06e-06
MI4/avD10_6	I4/avC4	I4/avC2	VDD!	VDD!
+ pmos1v#20ivpcell#20gpdk045	L=4.5e-08	W=2.15e-07
+ AD=5.375e-14	AS=5.375e-14	PD=8.4e-07	PS=8.4e-07
+ scc=0.000310104 scb=0.0165512 sca=15.7018 sb=2.5e-07 sa=2.265e-06
MI4/avD10_7	VDD!	I4/avC1	avC7	VDD!
+ pmos1v#20ivpcell#20gpdk045	L=4.5e-08	W=3.9e-07
+ AD=5.405e-14	AS=5.405e-14	PD=1.09e-06	PS=1.09e-06
+ scc=0.00105464 scb=0.0248047 sca=21.0295 sb=1.80026e-07 sa=1.4e-07
MI4/avD10_8	I4/avC2	CLK	VDD!	VDD!
+ pmos1v#20ivpcell#20gpdk045	L=4.5e-08	W=2.15e-07
+ AD=4.1925e-14	AS=4.1925e-14	PD=9.7e-07	PS=9.7e-07
+ scc=8.80979e-05 scb=0.0100786 sca=12.0017 sb=1.95e-07 sa=3.55e-07
MI4/avD10_9	VDD!	I4/avC3	I4/avC1	VDD!
+ pmos1v#20ivpcell#20gpdk045	L=4.5e-08	W=2.15e-07
+ AD=7.55e-14	AS=7.55e-14	PD=1.025e-06	PS=1.025e-06
+ scc=8.81364e-05 scb=0.00757132 sca=9.48488 sb=2.375e-06 sa=1.4e-07
MI4/avD10_10	I4/avC12	I4/avC1	VDD!	VDD!
+ pmos1v#20ivpcell#20gpdk045	L=4.5e-08	W=2.15e-07
+ AD=1.935e-14	AS=1.935e-14	PD=9.75e-07	PS=9.75e-07
+ scc=8.81351e-05 scb=0.00753732 sca=9.17172 sb=2.11e-06 sa=4.05e-07
MI4/avD10_11	I4/avC3	I4/avC4	I4/avC12	VDD!
+ pmos1v#20ivpcell#20gpdk045	L=4.5e-08	W=2.15e-07
+ AD=4.515e-14	AS=4.515e-14	PD=7.3e-07	PS=7.3e-07
+ scc=8.81351e-05 scb=0.00753495 sca=9.08925 sb=1.975e-06 sa=5.4e-07
MI4/avD10_12	I4/avC5	I4/avC2	I4/avC3	VDD!
+ pmos1v#20ivpcell#20gpdk045	L=4.5e-08	W=2.15e-07
+ AD=6.5575e-14	AS=6.5575e-14	PD=9.45e-07	PS=9.45e-07
+ scc=8.81351e-05 scb=0.00753411 sca=9.01765 sb=1.72e-06 sa=7.95e-07
MI5/avD10_1	VDD!	I5/avC6	I5/avC5	VDD!
+ pmos1v#20ivpcell#20gpdk045	L=4.5e-08	W=2.15e-07
+ AD=7.55e-14	AS=7.55e-14	PD=1.19e-06	PS=1.19e-06
+ scc=8.81351e-05 scb=0.0075345 sca=9.05993 sb=1.37e-06 sa=1.145e-06
MI5/avD10_2	I5/avC13	I5/avC5	VDD!	VDD!
+ pmos1v#20ivpcell#20gpdk045	L=4.5e-08	W=2.15e-07
+ AD=1.29e-14	AS=1.29e-14	PD=9.45e-07	PS=9.45e-07
+ scc=8.81351e-05 scb=0.00753977 sca=9.2218 sb=1.105e-06 sa=1.41e-06
MI5/avD10_3	I5/avC6	I5/avC2	I5/avC13	VDD!
+ pmos1v#20ivpcell#20gpdk045	L=4.5e-08	W=2.15e-07
+ AD=3.87e-14	AS=3.87e-14	PD=6.7e-07	PS=6.7e-07
+ scc=8.81353e-05 scb=0.00754907 sca=9.33557 sb=1e-06 sa=1.515e-06
MI5/avD10_4	I5/avC14	I5/avC4	I5/avC6	VDD!
+ pmos1v#20ivpcell#20gpdk045	L=4.5e-08	W=2.15e-07
+ AD=5.9125e-14	AS=5.9125e-14	PD=8.85e-07	PS=8.85e-07
+ scc=8.81499e-05 scb=0.00764831 sca=9.75526 sb=7.75e-07 sa=1.74e-06
MI5/avD10_5	VDD!	avC7	I5/avC14	VDD!
+ pmos1v#20ivpcell#20gpdk045	L=4.5e-08	W=2.15e-07
+ AD=3.44e-14	AS=3.44e-14	PD=8.65e-07	PS=8.65e-07
+ scc=9.38564e-05 scb=0.00933657 sca=11.4861 sb=4.55e-07 sa=2.06e-06
MI5/avD10_6	I5/avC4	I5/avC2	VDD!	VDD!
+ pmos1v#20ivpcell#20gpdk045	L=4.5e-08	W=2.15e-07
+ AD=5.375e-14	AS=5.375e-14	PD=8.4e-07	PS=8.4e-07
+ scc=0.000310104 scb=0.0165512 sca=15.7018 sb=2.5e-07 sa=2.265e-06
MI5/avD10_7	VDD!	I5/avC1	avC6	VDD!
+ pmos1v#20ivpcell#20gpdk045	L=4.5e-08	W=3.9e-07
+ AD=5.405e-14	AS=5.405e-14	PD=1.09e-06	PS=1.09e-06
+ scc=0.00105464 scb=0.0248047 sca=21.0295 sb=1.80026e-07 sa=1.4e-07
MI5/avD10_8	I5/avC2	CLK	VDD!	VDD!
+ pmos1v#20ivpcell#20gpdk045	L=4.5e-08	W=2.15e-07
+ AD=4.1925e-14	AS=4.1925e-14	PD=9.7e-07	PS=9.7e-07
+ scc=8.80979e-05 scb=0.0100786 sca=12.0017 sb=1.95e-07 sa=3.55e-07
MI5/avD10_9	VDD!	I5/avC3	I5/avC1	VDD!
+ pmos1v#20ivpcell#20gpdk045	L=4.5e-08	W=2.15e-07
+ AD=7.55e-14	AS=7.55e-14	PD=1.025e-06	PS=1.025e-06
+ scc=8.81364e-05 scb=0.00757132 sca=9.48488 sb=2.375e-06 sa=1.4e-07
MI5/avD10_10	I5/avC12	I5/avC1	VDD!	VDD!
+ pmos1v#20ivpcell#20gpdk045	L=4.5e-08	W=2.15e-07
+ AD=1.935e-14	AS=1.935e-14	PD=9.75e-07	PS=9.75e-07
+ scc=8.81351e-05 scb=0.00753732 sca=9.17172 sb=2.11e-06 sa=4.05e-07
MI5/avD10_11	I5/avC3	I5/avC4	I5/avC12	VDD!
+ pmos1v#20ivpcell#20gpdk045	L=4.5e-08	W=2.15e-07
+ AD=4.515e-14	AS=4.515e-14	PD=7.3e-07	PS=7.3e-07
+ scc=8.81351e-05 scb=0.00753495 sca=9.08925 sb=1.975e-06 sa=5.4e-07
MI5/avD10_12	I5/avC5	I5/avC2	I5/avC3	VDD!
+ pmos1v#20ivpcell#20gpdk045	L=4.5e-08	W=2.15e-07
+ AD=6.5575e-14	AS=6.5575e-14	PD=9.45e-07	PS=9.45e-07
+ scc=8.81351e-05 scb=0.00753411 sca=9.01765 sb=1.72e-06 sa=7.95e-07
MI6/avD10_1	VDD!	I6/avC6	I6/avC5	VDD!
+ pmos1v#20ivpcell#20gpdk045	L=4.5e-08	W=2.15e-07
+ AD=7.55e-14	AS=7.55e-14	PD=1.19e-06	PS=1.19e-06
+ scc=8.81351e-05 scb=0.0075345 sca=9.05993 sb=1.37e-06 sa=1.145e-06
MI6/avD10_2	I6/avC13	I6/avC5	VDD!	VDD!
+ pmos1v#20ivpcell#20gpdk045	L=4.5e-08	W=2.15e-07
+ AD=1.29e-14	AS=1.29e-14	PD=9.45e-07	PS=9.45e-07
+ scc=8.81351e-05 scb=0.00753977 sca=9.2218 sb=1.105e-06 sa=1.41e-06
MI6/avD10_3	I6/avC6	I6/avC2	I6/avC13	VDD!
+ pmos1v#20ivpcell#20gpdk045	L=4.5e-08	W=2.15e-07
+ AD=3.87e-14	AS=3.87e-14	PD=6.7e-07	PS=6.7e-07
+ scc=8.81353e-05 scb=0.00754907 sca=9.33557 sb=1e-06 sa=1.515e-06
MI6/avD10_4	I6/avC14	I6/avC4	I6/avC6	VDD!
+ pmos1v#20ivpcell#20gpdk045	L=4.5e-08	W=2.15e-07
+ AD=5.9125e-14	AS=5.9125e-14	PD=8.85e-07	PS=8.85e-07
+ scc=8.81499e-05 scb=0.00764831 sca=9.75526 sb=7.75e-07 sa=1.74e-06
MI6/avD10_5	VDD!	avC6	I6/avC14	VDD!
+ pmos1v#20ivpcell#20gpdk045	L=4.5e-08	W=2.15e-07
+ AD=3.44e-14	AS=3.44e-14	PD=8.65e-07	PS=8.65e-07
+ scc=9.38564e-05 scb=0.00933657 sca=11.4861 sb=4.55e-07 sa=2.06e-06
MI6/avD10_6	I6/avC4	I6/avC2	VDD!	VDD!
+ pmos1v#20ivpcell#20gpdk045	L=4.5e-08	W=2.15e-07
+ AD=5.375e-14	AS=5.375e-14	PD=8.4e-07	PS=8.4e-07
+ scc=0.000310104 scb=0.0165512 sca=15.7018 sb=2.5e-07 sa=2.265e-06
MI6/avD10_7	VDD!	I6/avC1	B	VDD!
+ pmos1v#20ivpcell#20gpdk045	L=4.5e-08	W=3.9e-07
+ AD=5.405e-14	AS=5.405e-14	PD=1.09e-06	PS=1.09e-06
+ scc=0.00105464 scb=0.0248047 sca=21.0295 sb=1.80026e-07 sa=1.4e-07
MI6/avD10_8	I6/avC2	CLK	VDD!	VDD!
+ pmos1v#20ivpcell#20gpdk045	L=4.5e-08	W=2.15e-07
+ AD=4.1925e-14	AS=4.1925e-14	PD=9.7e-07	PS=9.7e-07
+ scc=8.80979e-05 scb=0.0100786 sca=12.0017 sb=1.95e-07 sa=3.55e-07
MI6/avD10_9	VDD!	I6/avC3	I6/avC1	VDD!
+ pmos1v#20ivpcell#20gpdk045	L=4.5e-08	W=2.15e-07
+ AD=7.55e-14	AS=7.55e-14	PD=1.025e-06	PS=1.025e-06
+ scc=8.81364e-05 scb=0.00757132 sca=9.48488 sb=2.375e-06 sa=1.4e-07
MI6/avD10_10	I6/avC12	I6/avC1	VDD!	VDD!
+ pmos1v#20ivpcell#20gpdk045	L=4.5e-08	W=2.15e-07
+ AD=1.935e-14	AS=1.935e-14	PD=9.75e-07	PS=9.75e-07
+ scc=8.81351e-05 scb=0.00753732 sca=9.17172 sb=2.11e-06 sa=4.05e-07
MI6/avD10_11	I6/avC3	I6/avC4	I6/avC12	VDD!
+ pmos1v#20ivpcell#20gpdk045	L=4.5e-08	W=2.15e-07
+ AD=4.515e-14	AS=4.515e-14	PD=7.3e-07	PS=7.3e-07
+ scc=8.81351e-05 scb=0.00753495 sca=9.08925 sb=1.975e-06 sa=5.4e-07
MI6/avD10_12	I6/avC5	I6/avC2	I6/avC3	VDD!
+ pmos1v#20ivpcell#20gpdk045	L=4.5e-08	W=2.15e-07
+ AD=6.5575e-14	AS=6.5575e-14	PD=9.45e-07	PS=9.45e-07
+ scc=8.81351e-05 scb=0.00753411 sca=9.01765 sb=1.72e-06 sa=7.95e-07
MI3/avD10_1	avC8	reset	I3/avC3	VDD!
+ pmos1v#20ivpcell#20gpdk045	L=4.5e-08	W=3.6e-06
+ AD=5.04e-13	AS=5.04e-13	PD=7.48e-06	PS=7.48e-06
+ scc=0.000103609 scb=0.00657108 sca=7.29797 sb=1.4e-07 sa=1.4e-07
MI3/avD10_2	I3/avC3	B	VDD!	VDD!
+ pmos1v#20ivpcell#20gpdk045	L=4.5e-08	W=3.6e-06
+ AD=5.04e-13	AS=5.04e-13	PD=7.48e-06	PS=7.48e-06
+ scc=2.59231e-05 scb=0.0010472 sca=3.85885 sb=1.4e-07 sa=1.4e-07
MI3/avD10_3	VDD!	avC6	I3/avC3	VDD!
+ pmos1v#20ivpcell#20gpdk045	L=4.5e-08	W=3.6e-06
+ AD=5.04e-13	AS=5.04e-13	PD=7.48e-06	PS=7.48e-06
+ scc=0.0004305 scb=0.0124091 sca=10.6914 sb=1.4e-07 sa=1.4e-07
*
*
*       CAPACITOR CARDS
*
*
C1	VDD!	VSS!	5.91396e-15	$X=9.9345 $Y=11.027
C2	CLK	VSS!	2.01615e-15	$X=9.4815 $Y=11.9105
C3	reset	VSS!	6.43891e-16	$X=7.7825 $Y=11.457
C4	B	VSS!	1.43373e-15	$X=8.169 $Y=10.6025
C5	avC8	VSS!	1.41697e-15	$X=8.745 $Y=11.4355
C6	avC6	VSS!	2.26641e-15	$X=9.1585 $Y=11.108
C7	avC7	VSS!	9.70385e-16	$X=10.0965 $Y=13.205
C8	I4/avC17	VSS!	5.69652e-19	$X=11.609 $Y=13.951
C9	I4/avC16	VSS!	6.9061e-19	$X=11.1935 $Y=13.95
C10	I4/avC15	VSS!	2.97012e-18	$X=10.059 $Y=13.95
C11	I4/avC14	VSS!	1.05478e-18	$X=11.4595 $Y=14.666
C12	I4/avC13	VSS!	6.32991e-19	$X=11.024 $Y=14.6705
C13	I4/avC12	VSS!	1.34401e-18	$X=10.034 $Y=14.67
C14	I4/avC6	VSS!	4.54246e-16	$X=11.0745 $Y=14.295
C15	I4/avC5	VSS!	4.35146e-16	$X=10.684 $Y=14.3465
C16	I4/avC4	VSS!	1.01157e-15	$X=11.129 $Y=14.143
C17	I4/avC3	VSS!	4.29526e-16	$X=10.0745 $Y=14.2285
C18	I4/avC2	VSS!	1.51074e-15	$X=10.541 $Y=14.269
C19	I4/avC1	VSS!	7.94003e-16	$X=9.562 $Y=14.2435
C20	I5/avC17	VSS!	5.31312e-19	$X=11.669 $Y=11.6315
C21	I5/avC16	VSS!	4.49246e-19	$X=11.2535 $Y=11.6315
C22	I5/avC15	VSS!	3.0504e-18	$X=10.119 $Y=11.6315
C23	I5/avC14	VSS!	1.05478e-18	$X=11.5195 $Y=12.3495
C24	I5/avC13	VSS!	6.98193e-19	$X=11.084 $Y=12.3515
C25	I5/avC12	VSS!	1.35997e-18	$X=10.094 $Y=12.351
C26	I5/avC6	VSS!	4.70833e-16	$X=11.134 $Y=11.993
C27	I5/avC5	VSS!	4.42918e-16	$X=10.7435 $Y=12.0465
C28	I5/avC4	VSS!	1.07593e-15	$X=11.188 $Y=11.859
C29	I5/avC3	VSS!	4.31061e-16	$X=10.134 $Y=11.927
C30	I5/avC2	VSS!	1.49637e-15	$X=10.5995 $Y=12.005
C31	I5/avC1	VSS!	7.84419e-16	$X=9.6215 $Y=11.95
C32	I6/avC17	VSS!	5.31312e-19	$X=11.684 $Y=9.447
C33	I6/avC16	VSS!	5.08753e-19	$X=11.2685 $Y=9.4475
C34	I6/avC15	VSS!	3.38429e-18	$X=10.134 $Y=9.4475
C35	I6/avC14	VSS!	1.05478e-18	$X=11.5345 $Y=10.168
C36	I6/avC13	VSS!	6.60419e-19	$X=11.099 $Y=10.167
C37	I6/avC12	VSS!	1.12243e-18	$X=10.109 $Y=10.167
C38	I6/avC6	VSS!	4.63016e-16	$X=11.1495 $Y=9.824
C39	I6/avC5	VSS!	4.41414e-16	$X=10.758 $Y=9.88
C40	I6/avC4	VSS!	1.04796e-15	$X=11.203 $Y=9.7075
C41	I6/avC3	VSS!	4.25702e-16	$X=10.149 $Y=9.76
C42	I6/avC2	VSS!	1.50355e-15	$X=10.614 $Y=9.8725
C43	I6/avC1	VSS!	7.82806e-16	$X=9.636 $Y=9.79
C44	I3/avS13	VSS!	3.65192e-17	$X=7.6465 $Y=11.289
C45	I3/avC3	VSS!	2.4851e-16	$X=7.503 $Y=13.3965
C46	I3/avC2	VSS!	8.23962e-17	$X=7.1435 $Y=9.2655
*
*
.ENDS Bool_Lab2
*
